Circuit: * C:\users\karmic\Desktop\Amplifiers Simulations\SingleStageAmplifiers\CS_NMOSDiodeLOADLINE.asc

Instance "m2": Length shorter than recommended for a level 1 MOSFET.
Instance "m2": Width narrower than recommended for a level 1 MOSFET.
Instance "m1": Length shorter than recommended for a level 1 MOSFET.
Instance "m1": Width narrower than recommended for a level 1 MOSFET.
.step v1=0
.step v1=1
.step v1=2
.step v1=3
.step v1=4
.step v1=5

Date: Sat Dec 29 16:52:59 2018
Total elapsed time: 0.146 seconds.

tnom = 27
temp = 27
method = trap
totiter = 96
traniter = 0
tranpoints = 0
accept = 0
rejected = 0
matrix size = 6
fillins = 0
solver = Normal
Matrix Compiler1:      12 opcodes
Matrix Compiler2: off  [0.6]/3.6/0.6

