Circuit: * C:\users\karmic\Desktop\CS amp\CS_AMP_NMOS_PMOS_Diode\CS_PMOS_Diode.asc

Instance "m2": Width narrower than recommended for a level 1 MOSFET.
Instance "m1": Width narrower than recommended for a level 1 MOSFET.

Date: Wed Dec 26 12:12:26 2018
Total elapsed time: 0.127 seconds.

tnom = 27
temp = 27
method = trap
totiter = 22
traniter = 0
tranpoints = 0
accept = 0
rejected = 0
matrix size = 5
fillins = 0
solver = Normal
Matrix Compiler1: 114 bytes object code size
Matrix Compiler2: 301 bytes object code size
