Circuit: * C:\users\karmic\Desktop\Amplifiers Simulations\Aditya\CS_Rd.asc

Instance "m1": Length shorter than recommended for a level 1 MOSFET.
Instance "m1": Width narrower than recommended for a level 1 MOSFET.

Date: Thu Dec 27 17:20:13 2018
Total elapsed time: 0.992 seconds.

tnom = 27
temp = 27
method = trap
totiter = 100004
traniter = 0
tranpoints = 0
accept = 0
rejected = 0
matrix size = 5
fillins = 0
solver = Normal
Matrix Compiler1: 114 bytes object code size  0.6/0.5/[0.5]
Matrix Compiler2: 301 bytes object code size  0.5/0.6/[0.5]

