Circuit: * C:\users\karmic\Desktop\Amplifiers Simulations\Aditya\CS_RdLOADLINE.asc

Instance "m1": Length shorter than recommended for a level 1 MOSFET.
Instance "m1": Width narrower than recommended for a level 1 MOSFET.
.step v1=0
.step v1=1
.step v1=2
.step v1=3
.step v1=4
.step v1=5

Date: Thu Dec 27 17:13:07 2018
Total elapsed time: 0.124 seconds.

tnom = 27
temp = 27
method = trap
totiter = 86
traniter = 0
tranpoints = 0
accept = 0
rejected = 0
matrix size = 6
fillins = 0
solver = Normal
Matrix Compiler1:      12 opcodes
Matrix Compiler2: off
