Circuit: * C:\users\karmic\Desktop\Amplifiers Simulations\Aditya\CSN_NMOSDiodegain.asc

Instance "m2": Length shorter than recommended for a level 1 MOSFET.
Instance "m2": Width narrower than recommended for a level 1 MOSFET.
Instance "m1": Length shorter than recommended for a level 1 MOSFET.
Instance "m1": Width narrower than recommended for a level 1 MOSFET.

Date: Thu Dec 27 18:04:35 2018
Total elapsed time: 0.109 seconds.

tnom = 27
temp = 27
method = trap
totiter = 1016
traniter = 0
tranpoints = 0
accept = 0
rejected = 0
matrix size = 5
fillins = 0
solver = Normal
Matrix Compiler1: 114 bytes object code size  9.6/0.5/[0.5]
Matrix Compiler2: 301 bytes object code size  0.5/0.5/[0.5]

