Circuit: * C:\users\karmic\Desktop\Amplifiers Simulations\Aditya\loadlineMOS.asc

Instance "m2": Width narrower than recommended for a level 1 MOSFET.
.step v2=0
.step v2=1
.step v2=2
.step v2=3
.step v2=4
.step v2=5

Date: Thu Dec 27 17:09:17 2018
Total elapsed time: 0.143 seconds.

tnom = 27
temp = 27
method = trap
totiter = 96
traniter = 0
tranpoints = 0
accept = 0
rejected = 0
matrix size = 6
fillins = 0
solver = Normal
Matrix Compiler1: off
Matrix Compiler2: 336 bytes object code size  0.7/0.6/[0.5]

