Circuit: * C:\users\karmic\Desktop\Amplifiers Simulations\SingleStageAmplifiers\CSN_NMOSDiode\CSN_NMOSDiodeOutput.asc

Instance "m2": Length shorter than recommended for a level 1 MOSFET.
Instance "m2": Width narrower than recommended for a level 1 MOSFET.
Instance "m1": Length shorter than recommended for a level 1 MOSFET.
Instance "m1": Width narrower than recommended for a level 1 MOSFET.
Direct Newton iteration for .op point succeeded.

Date: Sat Dec 29 17:31:30 2018
Total elapsed time: 0.170 seconds.

tnom = 27
temp = 27
method = modified trap
totiter = 1032
traniter = 1027
tranpoints = 420
accept = 264
rejected = 156
matrix size = 5
fillins = 0
solver = Normal
Matrix Compiler1: 114 bytes object code size  0.5/0.5/[0.5]
Matrix Compiler2: 301 bytes object code size  0.5/0.6/[0.5]

